/*--------------------------------*- C++ -*----------------------------------*\
| =========                 |                                                 |
| \\      /  F ield         | OpenFOAM: The Open Source CFD Toolbox           |
|  \\    /   O peration     | Version:  v2306                                 |
|   \\  /    A nd           | Website:  www.openfoam.com                      |
|    \\/     M anipulation  |                                                 |
\*---------------------------------------------------------------------------*/
FoamFile
{
    version     2.0;
    format      ascii;
    class       dictionary;
    object      blockMeshDict;
}
// * * * * * * * * * * * * * * * * * * * * * * * * * * * * * * * * * * * * * //

scale  0.0254;

vertices
(
	( -96 -16 0 )	//0
	( 144 -16 0 )	//1
	( 144  16 0 )	//2
	( -96  16 0 )	//3
	
	( -96 -16 48 )	//4
	( 144 -16 48 )	//5
	( 144  16 48 )	//6
	( -96  16 48 )	//7
);

blocks
(
    hex ( 0 1 2 3 4 5 6 7) (16 4 4) simpleGrading (1 1 1)
);

edges
(

);


boundary
(
    inlet
    {
        type        patch;
        faces
        (
            (0 3 7 4)
        );
    }

    outlet
    {
        type        patch;
        faces
        (
            (1 2 6 5)
        );
    }

    top
    {
        type        patch;
        faces
        (
            (3 2 6 7)
        );
    }

    bottom
    {
        type        patch;
        faces
        (
            (0 1 5 4)
        );
    }
    
    frontAndBack
    {
        type        patch;
        faces
        (
            (0 1 2 3)

            (4 5 6 7)
        );
    }

);

mergePatchPairs
(
);


// ************************************************************************* //
