/*--------------------------------*- C++ -*----------------------------------*\
| =========                 |                                                 |
| \\      /  F ield         | OpenFOAM: The Open Source CFD Toolbox           |
|  \\    /   O peration     | Version:  v2306                                 |
|   \\  /    A nd           | Website:  www.openfoam.com                      |
|    \\/     M anipulation  |                                                 |
\*---------------------------------------------------------------------------*/
FoamFile
{
    version     2.0;
    format      ascii;
    class       dictionary;
    object      blockMeshDict;
}
// * * * * * * * * * * * * * * * * * * * * * * * * * * * * * * * * * * * * * //

scale  0.0254;

xmin -96;
xmax 144;
ymin -16;
ymax  16;
zmin   0;
zmax  48;

deltax 8;
deltay 8;
deltaz 8;

lx #calc "$xmax - $xmin";
ly #calc "$ymax - $ymin";
lz #calc "$zmax - $zmin";

xcells #calc "round($lx/$deltax)";
ycells #calc "round($ly/$deltay)";
zcells #calc "round($lz/$deltaz)";

vertices
(
	($xmin $ymin $zmin)		//0
	($xmax $ymin $zmin)		//1
	($xmax $ymax $zmin)		//2
	($xmin $ymax $zmin)		//3
	
	($xmin $ymin $zmax)		//4
	($xmax $ymin $zmax)		//5
	($xmax $ymax $zmax)		//6
	($xmin $ymax $zmax)		//7
);

blocks
(
    hex ( 0 1 2 3 4 5 6 7) ($xcells $ycells $zcells) simpleGrading (1 1 1)
);

edges
(

);


boundary
(
    inlet
    {
        type        patch;
        faces
        (
            (0 4 7 3)
        );
    }

    outlet
    {
        type        patch;
        faces
        (
            (2 6 5 1)
        );
    }

    top
    {
        type        patch;
        faces
        (
            (3 7 6 2)
        );
    }

    bottom
    {
        type        patch;
        faces
        (
            (0 1 5 4)
        );
    }
    
    back
    {
        type        symmetryPlane;
        faces
        (
            (0 3 2 1)
        );
    }
    
    front
    {
        type        patch;
        faces
        (
            (4 5 6 7)
        );
    }

);

mergePatchPairs
(
);


// ************************************************************************* //
